3
Properties=species:S:1:pos:R:3:forces:R:3:charge:R:1 energy=-2081.040424146119 pbc="F F F"
H        0.74936820       0.00000000       0.44243290      -0.05791291       0.00000000      -0.31847718       0.34384167
O        0.00000000       0.00000000      -0.16535070       0.00000038       0.00000000       0.63695395      -0.68768334
H       -0.74936820       0.00000000       0.44243290       0.05791253       0.00000000      -0.31847680       0.34384170
3
Properties=species:S:1:pos:R:3:forces:R:3:charge:R:1 energy=-2081.044630529028 pbc="F F F"
H        0.74854087       0.00000000       0.43788323       0.23909935       0.00000000      -0.00179498       0.34593028
O        0.00000001       0.00000000      -0.15625136       0.00000017       0.00000000       0.00358990      -0.69186044
H       -0.74854088       0.00000000       0.43788323      -0.23909953       0.00000000      -0.00179488       0.34593025
3
Properties=species:S:1:pos:R:3:forces:R:3:charge:R:1 energy=-2081.046005164057 pbc="F F F"
H        0.75168585       0.00000000       0.43708244       0.16286945       0.00000000      -0.01179720       0.34605303
O        0.00000001       0.00000000      -0.15464978       0.00000025       0.00000000       0.02359422      -0.69210601
H       -0.75168586       0.00000000       0.43708245      -0.16286969       0.00000000      -0.01179697       0.34605306
3
Properties=species:S:1:pos:R:3:forces:R:3:charge:R:1 energy=-2081.047412470907 pbc="F F F"
H        0.75980907       0.00000000       0.43446068      -0.00038196       0.00000000      -0.00162584       0.34661257
O        0.00000002       0.00000000      -0.14940628      -0.00000003       0.00000000       0.00325169      -0.69322515
H       -0.75980910       0.00000000       0.43446070       0.00038199       0.00000000      -0.00162587       0.34661266
